Version 4
SHEET 1 2288 680
WIRE 528 -464 336 -464
WIRE 1216 -448 1072 -448
WIRE 528 -384 528 -464
WIRE -16 -192 -80 -192
WIRE 160 -192 64 -192
WIRE 304 -192 208 -192
WIRE 1312 -192 1232 -192
WIRE 1424 -192 1312 -192
WIRE 1584 -192 1424 -192
WIRE 160 -160 160 -192
WIRE 208 -160 208 -192
WIRE 208 -160 160 -160
WIRE 704 -160 608 -160
WIRE 720 -160 704 -160
WIRE 832 -160 800 -160
WIRE 944 -160 832 -160
WIRE 1072 -160 1072 -448
WIRE 1072 -160 944 -160
WIRE -80 -128 -80 -192
WIRE 832 -112 832 -160
WIRE 944 -112 944 -160
WIRE 336 -96 336 -464
WIRE 1424 -96 1424 -192
WIRE 1072 -80 1072 -160
WIRE 1312 -80 1312 -192
WIRE 304 -64 304 -192
WIRE 336 -64 336 -96
WIRE 336 -64 304 -64
WIRE 704 -64 704 -160
WIRE 336 -32 304 -32
WIRE 528 -32 528 -304
WIRE 608 -32 608 -160
WIRE 704 -32 704 -64
WIRE 160 0 128 0
WIRE 304 0 304 -32
WIRE 304 0 208 0
WIRE 336 16 336 -32
WIRE 1584 32 1584 -192
WIRE -176 48 -208 48
WIRE -80 48 -80 -48
WIRE -80 48 -112 48
WIRE -16 48 -80 48
WIRE 128 48 128 0
WIRE 128 48 64 48
WIRE 160 48 160 0
WIRE 208 48 208 0
WIRE 208 48 160 48
WIRE 704 64 704 48
WIRE 832 64 832 -48
WIRE 832 64 704 64
WIRE 944 64 944 -48
WIRE 944 64 832 64
WIRE 992 64 944 64
WIRE 1072 64 1072 0
WIRE 1072 64 992 64
WIRE 1248 64 1072 64
WIRE 1312 64 1312 -16
WIRE 1312 64 1248 64
WIRE 1424 64 1424 -16
WIRE 1424 64 1312 64
WIRE -208 80 -208 48
WIRE 1312 96 1312 64
WIRE 1424 96 1424 64
WIRE 336 128 336 16
WIRE 528 128 528 48
WIRE 528 128 336 128
WIRE 608 128 608 48
WIRE 704 128 704 64
WIRE 704 128 608 128
WIRE 1312 192 1312 160
WIRE 1312 192 1248 192
WIRE 1424 192 1424 176
WIRE 1424 192 1312 192
WIRE 1584 192 1584 112
WIRE 1584 192 1424 192
WIRE 1584 224 1584 192
FLAG 1232 -192 V_3.3
FLAG -208 80 0
FLAG 1584 224 0
FLAG 1216 -448 AIN0
FLAG 1248 64 V_1.65
FLAG 992 64 V_1.65
FLAG 1248 192 0
FLAG -48 -400 VdriveSw
FLAG -48 -320 0
FLAG 336 -96 Fase
FLAG 336 16 Neutro
FLAG 704 -64 SEC_TA
SYMBOL battery 1584 16 R0
WINDOW 123 0 0 Left 0
WINDOW 39 42 53 Left 2
SYMATTR SpiceLine Rser=0.1
SYMATTR InstName V1
SYMATTR Value 3.3
SYMBOL res 688 -48 R0
WINDOW 3 37 66 Left 2
SYMATTR Value 15
SYMATTR InstName R5
SYMBOL ind2 512 -48 R0
SYMATTR InstName L1
SYMATTR Value 1µ
SYMATTR Type ind
SYMATTR SpiceLine Rser=1u
SYMBOL ind2 592 -48 R0
SYMATTR InstName L2
SYMATTR Value 1
SYMATTR Type ind
SYMATTR SpiceLine Rser=47 Cpar=1pF
SYMBOL res2 -112 32 R90
WINDOW 0 0 32 VBottom 2
WINDOW 3 32 32 VTop 2
SYMATTR InstName R7
SYMATTR Value 1G
SYMBOL res 1408 -112 R0
SYMATTR InstName R20
SYMATTR Value 27k
SYMBOL cap 1296 96 R0
SYMATTR InstName C1
SYMATTR Value 10µf
SYMBOL res 816 -176 R90
WINDOW 0 0 56 VBottom 2
WINDOW 3 32 56 VTop 2
SYMATTR InstName R2
SYMATTR Value 2k2
SYMBOL diode 816 -112 R0
WINDOW 0 38 30 Left 2
SYMATTR InstName D9
SYMATTR Value 1N4148
SYMBOL diode 928 -48 M180
WINDOW 0 38 34 Left 2
WINDOW 3 24 0 Left 2
SYMATTR InstName D12
SYMATTR Value 1N4148
SYMBOL res 1408 80 R0
SYMATTR InstName R11
SYMATTR Value 27k
SYMBOL voltage -80 -144 R0
WINDOW 123 0 0 Left 0
WINDOW 0 38 41 Left 2
WINDOW 3 33 74 Left 2
SYMATTR InstName V2
SYMATTR Value SINE(0 324 50 1ms 0 0 40)
SYMATTR SpiceLine Rser=0.01 Cpar=10nF
SYMBOL voltage -48 -416 R0
WINDOW 123 0 0 Left 0
WINDOW 39 0 0 Left 0
SYMATTR InstName V3
SYMATTR Value PULSE(0 5 .75s 1ns 1ns .025s)
SYMBOL res 80 -208 R90
WINDOW 0 0 56 VBottom 2
WINDOW 3 32 56 VTop 2
SYMATTR InstName RconduttoreFase
SYMATTR Value 0.008
SYMBOL res 80 32 R90
WINDOW 0 0 56 VBottom 2
WINDOW 3 32 56 VTop 2
SYMATTR InstName RconduttoreNeutro
SYMATTR Value 0.008
SYMBOL cap 1296 -80 R0
SYMATTR InstName C2
SYMATTR Value 10µf
SYMBOL res 512 -400 R0
SYMATTR InstName R_load
SYMATTR Value {LOAD}
SYMBOL res 1056 -96 R0
SYMATTR InstName R6
SYMATTR Value 47k
TEXT 112 144 Left 2 !.tran 40ms
TEXT 392 8 Left 2 !K1 L1 L2 1
TEXT -88 200 Left 2 !.step dec param LOAD 0.01 20 2
TEXT 1280 -448 Left 2 ;To pin AIN0
TEXT 24 -768 Left 2 ;La direttiva .step consente di visualizzare la corrente che si instaura\n nel circuito in base a divesi valori della resistenza LOAD
