Version 4
SHEET 1 2288 680
WIRE 528 -464 336 -464
WIRE 688 -464 528 -464
WIRE 528 -416 528 -464
WIRE 688 -384 688 -464
WIRE 528 -304 528 -336
WIRE 528 -304 480 -304
WIRE 1296 -240 944 -240
WIRE 528 -224 480 -224
WIRE 528 -208 528 -224
WIRE 688 -208 688 -304
WIRE 688 -208 528 -208
WIRE -16 -192 -80 -192
WIRE 160 -192 64 -192
WIRE 256 -192 208 -192
WIRE 160 -160 160 -192
WIRE 208 -160 208 -192
WIRE 208 -160 160 -160
WIRE 720 -160 704 -160
WIRE 832 -160 800 -160
WIRE 944 -160 832 -160
WIRE 1072 -160 944 -160
WIRE 1120 -160 1072 -160
WIRE -80 -128 -80 -192
WIRE 1456 -128 1376 -128
WIRE 1568 -128 1456 -128
WIRE 1728 -128 1568 -128
WIRE 832 -112 832 -160
WIRE 944 -112 944 -160
WIRE 1568 -112 1568 -128
WIRE 336 -96 336 -464
WIRE 1456 -96 1456 -128
WIRE 1072 -80 1072 -160
WIRE 256 -64 256 -192
WIRE 336 -64 336 -96
WIRE 336 -64 256 -64
WIRE 704 -64 704 -160
WIRE 704 -64 608 -64
WIRE 1728 -48 1728 -128
WIRE 336 -32 256 -32
WIRE 528 -32 528 -208
WIRE 608 -32 608 -64
WIRE 704 -32 704 -64
WIRE 176 0 128 0
WIRE 256 0 256 -32
WIRE 256 0 208 0
WIRE 1456 0 1456 -32
WIRE 1456 0 1376 0
WIRE 1568 0 1568 -32
WIRE 1568 0 1456 0
WIRE 336 16 336 -32
WIRE 1456 32 1456 0
WIRE 1568 32 1568 0
WIRE -176 48 -208 48
WIRE -80 48 -80 -48
WIRE -80 48 -112 48
WIRE -16 48 -80 48
WIRE 128 48 128 0
WIRE 128 48 64 48
WIRE 176 48 176 0
WIRE 208 48 208 0
WIRE 208 48 176 48
WIRE 608 64 608 48
WIRE 704 64 704 48
WIRE 704 64 608 64
WIRE 832 64 832 -48
WIRE 832 64 704 64
WIRE 944 64 944 -48
WIRE 944 64 832 64
WIRE 1072 64 1072 0
WIRE 1072 64 944 64
WIRE 1120 64 1072 64
WIRE -208 80 -208 48
WIRE 336 128 336 16
WIRE 528 128 528 48
WIRE 528 128 336 128
WIRE 1456 128 1456 96
WIRE 1456 128 1392 128
WIRE 1568 128 1568 112
WIRE 1568 128 1456 128
WIRE 1728 128 1728 32
WIRE 1728 128 1568 128
WIRE 1728 144 1728 128
WIRE 1296 272 944 272
FLAG 1376 -128 V_3.3
FLAG -208 80 0
FLAG 1728 144 0
FLAG 1296 272 0
FLAG 1120 -160 AIN0
FLAG 1296 -240 V_3.3
FLAG 1376 0 V_1.65
FLAG 1120 64 V_1.65
FLAG 1392 128 0
FLAG 352 -624 VdriveSw
FLAG 352 -544 0
FLAG 432 -288 VdriveSw
FLAG 432 -240 0
FLAG 336 -96 Fase
FLAG 336 16 Neutro
SYMBOL battery 1728 -64 R0
WINDOW 123 0 0 Left 0
WINDOW 39 42 53 Left 2
SYMATTR SpiceLine Rser=0.1
SYMATTR InstName V1
SYMATTR Value 3.3
SYMBOL res 688 -48 R0
WINDOW 3 37 66 Left 2
SYMATTR Value 15
SYMATTR InstName R5
SYMBOL ind2 512 -48 R0
SYMATTR InstName L1
SYMATTR Value 1µ
SYMATTR Type ind
SYMATTR SpiceLine Rser=1u
SYMBOL ind2 592 64 M180
WINDOW 0 36 80 Left 2
WINDOW 3 36 40 Left 2
SYMATTR InstName L2
SYMATTR Value 1
SYMATTR Type ind
SYMATTR SpiceLine Rser=47 Cpar=1pF
SYMBOL res2 -112 32 R90
WINDOW 0 0 32 VBottom 2
WINDOW 3 32 32 VTop 2
SYMATTR InstName R7
SYMATTR Value 1G
SYMBOL res 1552 -128 R0
SYMATTR InstName R20
SYMATTR Value 27k
SYMBOL cap 1440 32 R0
SYMATTR InstName C1
SYMATTR Value 10µf
SYMBOL res 816 -176 R90
WINDOW 0 0 56 VBottom 2
WINDOW 3 32 56 VTop 2
SYMATTR InstName R2
SYMATTR Value 2k2
SYMBOL diode 816 -112 R0
WINDOW 0 38 30 Left 2
SYMATTR InstName D9
SYMATTR Value 1N4148
SYMBOL diode 928 -48 M180
WINDOW 0 38 34 Left 2
WINDOW 3 24 0 Left 2
SYMATTR InstName D12
SYMATTR Value 1N4148
SYMBOL res 1552 16 R0
SYMATTR InstName R11
SYMATTR Value 27k
SYMBOL res 512 -432 R0
SYMATTR InstName R1
SYMATTR Value 0.010
SYMBOL voltage -80 -144 R0
WINDOW 123 0 0 Left 0
WINDOW 39 24 44 Left 2
SYMATTR SpiceLine Rser=0.01 Cpar=10nF
SYMATTR InstName V2
SYMATTR Value SINE(0 324 50 1ms 0 0 40)
SYMBOL sw 480 -208 M180
WINDOW 0 44 33 Left 2
WINDOW 3 41 59 Left 2
SYMATTR InstName S1
SYMATTR Value SHORT
SYMBOL voltage 352 -640 R0
WINDOW 123 0 0 Left 0
WINDOW 39 0 0 Left 0
SYMATTR InstName V3
SYMATTR Value PULSE(0 5 .75s 1ns 1ns .025s)
SYMBOL res 80 -208 R90
WINDOW 0 0 56 VBottom 2
WINDOW 3 32 56 VTop 2
SYMATTR InstName RconduttoreFase
SYMATTR Value 0.008
SYMBOL res 80 32 R90
WINDOW 0 0 56 VBottom 2
WINDOW 3 32 56 VTop 2
SYMATTR InstName RconduttoreNeutro
SYMATTR Value 0.008
SYMBOL cap 1440 -96 R0
SYMATTR InstName C2
SYMATTR Value 10µf
SYMBOL res 672 -400 R0
SYMATTR InstName R3
SYMATTR Value {X}
SYMBOL res 1056 -96 R0
SYMATTR InstName R6
SYMATTR Value 47k
TEXT 136 208 Left 2 !.tran 1s
TEXT 392 8 Left 2 !K1 L1 L2 1
TEXT 392 -344 Left 2 ;SHORT\nCIRCUIT
TEXT 368 -400 Left 2 ;CONTACT \nRESISTANCE
TEXT 272 -496 Left 2 !.model SHORT SW (Ron=1m Roff=1Meg Vt=.5 Vh=0)
TEXT -96 320 Left 2 !.step oct param X 10 100 1
